GA1_from_GA3
     RDKit          3D

 49 53  0  0  0  0  0  0  0  0999 V2000
   31.1959   43.1591   11.5554 C   0  0  0  0  0  0  0  0  0  0  0  0
   31.0444   44.5015   12.2901 C   0  0  2  0  0  0  0  0  0  0  0  0
   29.5502   44.8442   12.6375 C   0  0  1  0  0  0  0  0  0  0  0  0
   28.8247   43.6699   12.9146 O   0  0  0  0  0  0  0  0  0  0  0  0
   29.3936   45.8013   13.8633 C   0  0  0  0  0  0  0  0  0  0  0  0
   30.5997   46.7323   14.1683 C   0  0  0  0  0  0  0  0  0  0  0  0
   31.9643   46.1580   13.6882 C   0  0  1  0  0  0  0  0  0  0  0  0
   32.1741   46.5767   12.3419 O   0  0  0  0  0  0  0  0  0  0  0  0
   31.6009   45.6433   11.5044 C   0  0  0  0  0  0  0  0  0  0  0  0
   31.5384   45.7802   10.2558 O   0  0  0  0  0  0  0  0  0  0  0  0
   33.1610   46.4602   14.5960 C   0  0  2  0  0  0  0  0  0  0  0  0
   33.8878   47.7937   14.3026 C   0  0  0  0  0  0  0  0  0  0  0  0
   35.2049   47.8938   15.1206 C   0  0  0  0  0  0  0  0  0  0  0  0
   35.9149   46.5099   15.2782 C   0  0  2  0  0  0  0  0  0  0  0  0
   37.3043   46.6434   15.4385 O   0  0  0  0  0  0  0  0  0  0  0  0
   35.5330   45.6114   14.0946 C   0  0  0  0  0  0  0  0  0  0  0  0
   34.1028   45.2029   14.5080 C   0  0  1  0  0  0  0  0  0  0  0  0
   34.3483   44.6922   15.9449 C   0  0  0  0  0  0  0  0  0  0  0  0
   35.3426   45.7110   16.4246 C   0  0  0  0  0  0  0  0  0  0  0  0
   35.7073   45.8554   17.7015 C   0  0  0  0  0  0  0  0  0  0  0  0
   33.4035   44.2457   13.5052 C   0  0  2  0  0  0  0  0  0  0  0  0
   31.9053   44.6330   13.5736 C   0  0  2  0  0  0  0  0  0  0  0  0
   33.6573   42.7893   13.7347 C   0  0  0  0  0  0  0  0  0  0  0  0
   34.5389   42.1976   13.0606 O   0  0  0  0  0  0  0  0  0  0  0  0
   32.9450   42.0949   14.6948 O   0  0  0  0  0  0  0  0  0  0  0  0
   32.2357   43.0218   11.1904 H   0  0  0  0  0  0  0  0  0  0  0  0
   30.5179   43.1222   10.6762 H   0  0  0  0  0  0  0  0  0  0  0  0
   30.9518   42.3165   12.2365 H   0  0  0  0  0  0  0  0  0  0  0  0
   29.0866   45.3602   11.7602 H   0  0  0  0  0  0  0  0  0  0  0  0
   28.4243   43.3586   12.0608 H   0  0  0  0  0  0  0  0  0  0  0  0
   28.4772   46.4178   13.7359 H   0  0  0  0  0  0  0  0  0  0  0  0
   29.2213   45.1818   14.7720 H   0  0  0  0  0  0  0  0  0  0  0  0
   30.6096   46.9284   15.2620 H   0  0  0  0  0  0  0  0  0  0  0  0
   30.4311   47.7164   13.6787 H   0  0  0  0  0  0  0  0  0  0  0  0
   32.7678   46.5676   15.6319 H   0  0  0  0  0  0  0  0  0  0  0  0
   34.1231   47.8816   13.2203 H   0  0  0  0  0  0  0  0  0  0  0  0
   33.2243   48.6471   14.5616 H   0  0  0  0  0  0  0  0  0  0  0  0
   34.9871   48.3191   16.1247 H   0  0  0  0  0  0  0  0  0  0  0  0
   35.8803   48.6097   14.6040 H   0  0  0  0  0  0  0  0  0  0  0  0
   37.6629   47.0008   14.5845 H   0  0  0  0  0  0  0  0  0  0  0  0
   36.1980   44.7183   14.0398 H   0  0  0  0  0  0  0  0  0  0  0  0
   35.5822   46.1305   13.1127 H   0  0  0  0  0  0  0  0  0  0  0  0
   33.4259   44.6697   16.5656 H   0  0  0  0  0  0  0  0  0  0  0  0
   34.8271   43.6895   15.9588 H   0  0  0  0  0  0  0  0  0  0  0  0
   35.2675   45.2304   18.4721 H   0  0  0  0  0  0  0  0  0  0  0  0
   36.4406   46.6026   17.9875 H   0  0  0  0  0  0  0  0  0  0  0  0
   33.7856   44.4867   12.4867 H   0  0  0  0  0  0  0  0  0  0  0  0
   31.4265   44.1639   14.4641 H   0  0  0  0  0  0  0  0  0  0  0  0
   33.1175   41.1105   14.8600 H   0  0  0  0  0  0  0  0  0  0  0  0
  2  1  1  6
  2  3  1  0
  3  4  1  0
  3  5  1  0
  5  6  1  0
  6  7  1  0
  7  8  1  6
  8  9  1  0
  9 10  2  0
  7 11  1  0
 11 12  1  0
 12 13  1  0
 13 14  1  0
 14 15  1  1
 14 16  1  0
 16 17  1  0
 17 18  1  1
 18 19  1  0
 19 20  2  0
 17 21  1  0
 21 22  1  0
 21 23  1  0
 23 24  2  0
 23 25  1  0
  9  2  1  0
 22  2  1  0
 22  7  1  0
 17 11  1  0
 19 14  1  0
  1 26  1  0
  1 27  1  0
  1 28  1  0
  3 29  1  6
  4 30  1  0
  5 31  1  0
  5 32  1  0
  6 33  1  0
  6 34  1  0
 11 35  1  1
 12 36  1  0
 12 37  1  0
 13 38  1  0
 13 39  1  0
 15 40  1  0
 16 41  1  0
 16 42  1  0
 18 43  1  0
 18 44  1  0
 20 45  1  0
 20 46  1  0
 21 47  1  6
 22 48  1  1
 25 49  1  0
M  END
>  <EmbedRMS>  (1) 
0.04662429917793455

$$$$
